<?xml version="1.0" encoding="UTF-8"?>
<!-- generated on 2021-07-26 16:42:06.065901 by randomTrips.py UNKNOWN
  options: -n Alicante_centro_ciudad.net.xml -e 10000 <doubleminus>min-distance 100 <doubleminus>period 2.0177 <doubleminus>route-file Alicante_routes.rou.xml
-->
<routes xmlns:xsi="http://www.w3.org/2001/XMLSchema-instance" xsi:noNamespaceSchemaLocation="http://sumo.dlr.de/xsd/routes_file.xsd">
    <trip id="0" depart="0.00" from="20929395#3" to="325459677#0"/>
    <trip id="1" depart="2.02" from="467497545#6" to="49898934#3"/>
    <trip id="2" depart="4.04" from="22905040#2" to="141541747#6"/>
    <trip id="3" depart="6.05" from="22277431#6" to="21980567#1"/>
    <trip id="4" depart="8.07" from="22277434#14" to="454062359#1"/>
    <trip id="5" depart="10.09" from="106760977#14" to="20929386#2"/>
    <trip id="6" depart="12.11" from="21808364#1" to="20929409#3"/>
    <trip id="7" depart="14.12" from="22277431#5" to="20929406#2"/>
    <trip id="8" depart="16.14" from="20929403#1" to="20490210#3"/>
    <trip id="9" depart="18.16" from="22560996#3" to="22802672#0"/>
    <trip id="10" depart="20.18" from="259235560" to="22736852#3"/>
    <trip id="11" depart="22.19" from="20490204#2" to="22277433#1"/>
    <trip id="12" depart="24.21" from="-141541747#2" to="83998998#1"/>
    <trip id="13" depart="26.23" from="155444903#3" to="336449862#5"/>
    <trip id="14" depart="28.25" from="40062529#1" to="-46742805#4"/>
    <trip id="15" depart="30.27" from="20490158" to="22736619#0"/>
    <trip id="16" depart="32.28" from="33180104#1" to="336449862#4"/>
    <trip id="17" depart="34.30" from="22736675#11" to="20490185#4"/>
    <trip id="18" depart="36.32" from="447725242#5" to="-135398829#0"/>
    <trip id="19" depart="38.34" from="22802670#1" to="20929380#9"/>
    <trip id="20" depart="40.35" from="44883808#4" to="77347977"/>
    <trip id="21" depart="42.37" from="20490187#2" to="22560993#1"/>
    <trip id="22" depart="44.39" from="-21741431#1" to="249563063#2"/>
    <trip id="23" depart="46.41" from="22563924#7" to="447725242#0"/>
    <trip id="24" depart="48.42" from="109738909#2" to="49898934#1"/>
    <trip id="25" depart="50.44" from="141541747#3" to="86301442"/>
    <trip id="26" depart="52.46" from="22736854#0" to="44579151#0"/>
    <trip id="27" depart="54.48" from="22736619#0" to="-23388189#0"/>
    <trip id="28" depart="56.50" from="20490211#7" to="22736853#12"/>
    <trip id="29" depart="58.51" from="33197432#1" to="22788499#2"/>
    <trip id="30" depart="60.53" from="22802649#0" to="22560993#2"/>
    <trip id="31" depart="62.55" from="89830321#1" to="454062358#1"/>
    <trip id="32" depart="64.57" from="22560722#0" to="109738909#1"/>
    <trip id="33" depart="66.58" from="20929381#5" to="22736676#14"/>
    <trip id="34" depart="68.60" from="22278655#3" to="22560748#6"/>
    <trip id="35" depart="70.62" from="53270807#1" to="22278654#7"/>
    <trip id="36" depart="72.64" from="20490166#3" to="33180108#0"/>
    <trip id="37" depart="74.65" from="447725242#14" to="22273122#1"/>
    <trip id="38" depart="76.67" from="89546442#10" to="22905040#6"/>
    <trip id="39" depart="78.69" from="49898933#1" to="135398829#4"/>
    <trip id="40" depart="80.71" from="22277431#0" to="33177799#4"/>
    <trip id="41" depart="82.73" from="249563063#2" to="-89815317#4"/>
    <trip id="42" depart="84.74" from="22560993#3" to="155444903#0"/>
    <trip id="43" depart="86.76" from="22780276#0" to="22278654#2"/>
    <trip id="44" depart="88.78" from="46107609#16" to="83998998#0"/>
    <trip id="45" depart="90.80" from="-22563924#14" to="-89815317#3"/>
    <trip id="46" depart="92.81" from="20490155#1" to="86301446#0"/>
    <trip id="47" depart="94.83" from="-135394080#1" to="21980567#5"/>
    <trip id="48" depart="96.85" from="89815317#1" to="22563924#13"/>
    <trip id="49" depart="98.87" from="20490161#1" to="-135398829#6"/>
    <trip id="50" depart="100.89" from="-22560721#3" to="33199226"/>
    <trip id="51" depart="102.90" from="44579151#0" to="22802649#2"/>
    <trip id="52" depart="104.92" from="22588092#2" to="22563924#7"/>
    <trip id="53" depart="106.94" from="-141541747#7" to="86301433"/>
    <trip id="54" depart="108.96" from="22802649#4" to="-21980567#3"/>
    <trip id="55" depart="110.97" from="23463199#1" to="20490186#0"/>
    <trip id="56" depart="112.99" from="135398829#5" to="22905040#5"/>
    <trip id="57" depart="115.01" from="33180107#1" to="325459677#0"/>
    <trip id="58" depart="117.03" from="89815317#1" to="29032331#0"/>
    <trip id="59" depart="119.04" from="22736675#2" to="298414885#0"/>
    <trip id="60" depart="121.06" from="135394091" to="-22529899#3"/>
    <trip id="61" depart="123.08" from="31762004" to="22029386#4"/>
    <trip id="62" depart="125.10" from="141541745#0" to="-20490192#0"/>
    <trip id="63" depart="127.12" from="447725242#19" to="22277433#2"/>
    <trip id="64" depart="129.13" from="20929381#14" to="20490210#2"/>
    <trip id="65" depart="131.15" from="37039933#5" to="22905040#1"/>
    <trip id="66" depart="133.17" from="20929401#2" to="46106982#3"/>
    <trip id="67" depart="135.19" from="89664229#2" to="-46742805#5"/>
    <trip id="68" depart="137.20" from="22736852#0" to="40062525#2"/>
    <trip id="69" depart="139.22" from="336449863#4" to="33177796#1"/>
    <trip id="70" depart="141.24" from="22802650#0" to="40479899"/>
    <trip id="71" depart="143.26" from="425212533#0" to="22905040#2"/>
    <trip id="72" depart="145.27" from="467497545#5" to="-23388189#1"/>
    <trip id="73" depart="147.29" from="83998998#0" to="20490187#8"/>
    <trip id="74" depart="149.31" from="23463208#2" to="22905040#3"/>
    <trip id="75" depart="151.33" from="-22736748#1" to="20929376#0"/>
    <trip id="76" depart="153.35" from="22277435#1" to="430247020#1"/>
    <trip id="77" depart="155.36" from="22788499#0" to="336449862#5"/>
    <trip id="78" depart="157.38" from="20929381#1" to="22736676#5"/>
    <trip id="79" depart="159.40" from="-46742805#5" to="22736853#6"/>
    <trip id="80" depart="161.42" from="22139823#5" to="22788499#8"/>
    <trip id="81" depart="163.43" from="20490166#3" to="135398294"/>
    <trip id="82" depart="165.45" from="-135398829#2" to="22780276#0"/>
    <trip id="83" depart="167.47" from="20929367#0" to="108076257#1"/>
    <trip id="84" depart="169.49" from="-21741431#3" to="447725242#17"/>
    <trip id="85" depart="171.50" from="22736853#11" to="22560727#0"/>
    <trip id="86" depart="173.52" from="89546442#7" to="20929361#3"/>
    <trip id="87" depart="175.54" from="33197432#5" to="20490185#3"/>
    <trip id="88" depart="177.56" from="155444903#2" to="22560722#1"/>
    <trip id="89" depart="179.58" from="22278654#4" to="20490173#8"/>
    <trip id="90" depart="181.59" from="86312039#2" to="80589716#1"/>
    <trip id="91" depart="183.61" from="23038695#0" to="86299984#1"/>
    <trip id="92" depart="185.63" from="86299995#2" to="22277436#7"/>
    <trip id="93" depart="187.65" from="22278655#2" to="298410349#0"/>
    <trip id="94" depart="189.66" from="21131211" to="235966556#0"/>
    <trip id="95" depart="191.68" from="44883807" to="108076301#0"/>
    <trip id="96" depart="193.70" from="46107609#12" to="22563924#5"/>
    <trip id="97" depart="195.72" from="22529889#0" to="89664229#5"/>
    <trip id="98" depart="197.73" from="336449862#1" to="325459677#1"/>
    <trip id="99" depart="199.75" from="20929385#9" to="20929395#2"/>
    <trip id="100" depart="201.77" from="22278655#18" to="20929383#5"/>
    <trip id="101" depart="203.79" from="22560723#5" to="20929385#3"/>
    <trip id="102" depart="205.81" from="22788499#4" to="298410348#1"/>
    <trip id="103" depart="207.82" from="20490215#4" to="89815317#1"/>
    <trip id="104" depart="209.84" from="20490185#5" to="33197432#11"/>
    <trip id="105" depart="211.86" from="-156841480#0" to="-135398829#0"/>
    <trip id="106" depart="213.88" from="20929376#1" to="21741431#2"/>
    <trip id="107" depart="215.89" from="22801890#0" to="22736853#5"/>
    <trip id="108" depart="217.91" from="20490202#0" to="23036317#2"/>
    <trip id="109" depart="219.93" from="135412098" to="22736853#5"/>
    <trip id="110" depart="221.95" from="-106760973" to="23463211#1"/>
    <trip id="111" depart="223.96" from="49898934#2" to="-20490192#2"/>
    <trip id="112" depart="225.98" from="-89815317#0" to="21808364#1"/>
    <trip id="113" depart="228.00" from="20490161#0" to="22560728"/>
    <trip id="114" depart="230.02" from="21808366#0" to="20490201#0"/>
    <trip id="115" depart="232.04" from="33197432#7" to="22736853#9"/>
    <trip id="116" depart="234.05" from="20929361#1" to="20490184"/>
    <trip id="117" depart="236.07" from="86301442" to="-22563924#1"/>
    <trip id="118" depart="238.09" from="33197432#3" to="22560996#6"/>
    <trip id="119" depart="240.11" from="-364387181#0" to="-135398829#8"/>
    <trip id="120" depart="242.12" from="86301433" to="89664229#15"/>
    <trip id="121" depart="244.14" from="467497545#2" to="20490187#3"/>
    <trip id="122" depart="246.16" from="22277436#1" to="22780275"/>
    <trip id="123" depart="248.18" from="80589716#1" to="86299988"/>
    <trip id="124" depart="250.19" from="22736852#2" to="22278654#11"/>
    <trip id="125" depart="252.21" from="447725242#0" to="22780078#0"/>
    <trip id="126" depart="254.23" from="22802649#1" to="89546442#3"/>
    <trip id="127" depart="256.25" from="23388189#0" to="20929389#1"/>
    <trip id="128" depart="258.27" from="-22563924#14" to="22560993#4"/>
    <trip id="129" depart="260.28" from="22278655#3" to="370329319#5"/>
    <trip id="130" depart="262.30" from="33197432#4" to="22563924#5"/>
    <trip id="131" depart="264.32" from="22736676#11" to="336449862#3"/>
    <trip id="132" depart="266.34" from="106760977#12" to="-22802672#2"/>
    <trip id="133" depart="268.35" from="-22563924#15" to="325459677#1"/>
    <trip id="134" depart="270.37" from="22277436#10" to="86312039#3"/>
    <trip id="135" depart="272.39" from="20929355#1" to="235966556#0"/>
    <trip id="136" depart="274.41" from="22736517#0" to="22563924#8"/>
    <trip id="137" depart="276.42" from="22560996#6" to="89830321#0"/>
    <trip id="138" depart="278.44" from="22560748#5" to="135398829#8"/>
    <trip id="139" depart="280.46" from="22563924#10" to="20490191#2"/>
    <trip id="140" depart="282.48" from="106763634" to="86300011#0"/>
    <trip id="141" depart="284.50" from="-22802650#1" to="20929358"/>
    <trip id="142" depart="286.51" from="22277433#2" to="86299997"/>
    <trip id="143" depart="288.53" from="259235560" to="22588087#5"/>
    <trip id="144" depart="290.55" from="22736675#7" to="22736852#3"/>
    <trip id="145" depart="292.57" from="135394070#2" to="22736676#15"/>
    <trip id="146" depart="294.58" from="418648482" to="89674382#2"/>
    <trip id="147" depart="296.60" from="20929381#9" to="20929385#2"/>
    <trip id="148" depart="298.62" from="20490185#5" to="22560999#0"/>
    <trip id="149" depart="300.64" from="22032075#2" to="21777640#0"/>
    <trip id="150" depart="302.65" from="22560748#6" to="46107609#11"/>
    <trip id="151" depart="304.67" from="467497546#4" to="20490173#7"/>
    <trip id="152" depart="306.69" from="421685869#0" to="336449862#4"/>
    <trip id="153" depart="308.71" from="46107609#6" to="20490215#1"/>
    <trip id="154" depart="310.73" from="467497546#2" to="401248498#1"/>
    <trip id="155" depart="312.74" from="425212533#0" to="22736675#11"/>
    <trip id="156" depart="314.76" from="20490192#2" to="20490211#9"/>
    <trip id="157" depart="316.78" from="20490157" to="141541747#2"/>
    <trip id="158" depart="318.80" from="467497546#1" to="-141541747#7"/>
    <trip id="159" depart="320.81" from="86300011#1" to="22032075#3"/>
    <trip id="160" depart="322.83" from="20490187#9" to="20490173#3"/>
    <trip id="161" depart="324.85" from="229682848#0" to="-22563924#13"/>
    <trip id="162" depart="326.87" from="22278654#8" to="20929381#12"/>
    <trip id="163" depart="328.89" from="20490202#7" to="20929361#0"/>
    <trip id="164" depart="330.90" from="49898934#1" to="22736676#9"/>
    <trip id="165" depart="332.92" from="20929395#7" to="22277436#7"/>
    <trip id="166" depart="334.94" from="89664229#3" to="22278655#2"/>
    <trip id="167" depart="336.96" from="20929385#3" to="44579142"/>
    <trip id="168" depart="338.97" from="27383485#2" to="155444903#1"/>
    <trip id="169" depart="340.99" from="108076257#0" to="33177799#4"/>
    <trip id="170" depart="343.01" from="-22736896#0" to="23038546#2"/>
    <trip id="171" depart="345.03" from="49898933#0" to="22563924#8"/>
    <trip id="172" depart="347.04" from="418299352" to="22802649#1"/>
    <trip id="173" depart="349.06" from="20490211#2" to="298409669#0"/>
    <trip id="174" depart="351.08" from="89674382#1" to="22278655#2"/>
    <trip id="175" depart="353.10" from="22563937#1" to="22139823#1"/>
    <trip id="176" depart="355.12" from="22147925#4" to="22780584#0"/>
    <trip id="177" depart="357.13" from="44579145#0" to="49898934#0"/>
    <trip id="178" depart="359.15" from="-255643221#1" to="22278655#4"/>
    <trip id="179" depart="361.17" from="86301429" to="249579871"/>
    <trip id="180" depart="363.19" from="22278654#5" to="-22563924#17"/>
    <trip id="181" depart="365.20" from="22736675#7" to="22736341#1"/>
    <trip id="182" depart="367.22" from="140544928#1" to="89674382#0"/>
    <trip id="183" depart="369.24" from="425212516#1" to="86312039#1"/>
    <trip id="184" depart="371.26" from="21980567#1" to="-22788499#2"/>
    <trip id="185" depart="373.27" from="22278615#0" to="20490191#0"/>
    <trip id="186" depart="375.29" from="22736675#0" to="46107609#16"/>
    <trip id="187" depart="377.31" from="22736676#7" to="44883806#0"/>
    <trip id="188" depart="379.33" from="22801885" to="20490185#2"/>
    <trip id="189" depart="381.35" from="-20490192#2" to="22813170"/>
    <trip id="190" depart="383.36" from="20490187#10" to="467497545#3"/>
    <trip id="191" depart="385.38" from="22802672#2" to="20490211#2"/>
    <trip id="192" depart="387.40" from="89553575" to="83999006#1"/>
    <trip id="193" depart="389.42" from="46107609#5" to="20490192#1"/>
    <trip id="194" depart="391.43" from="22736620#8" to="20490162"/>
    <trip id="195" depart="393.45" from="-22563924#15" to="21980567#4"/>
    <trip id="196" depart="395.47" from="22780078#2" to="86299995#1"/>
    <trip id="197" depart="397.49" from="467497545#0" to="20490173#8"/>
    <trip id="198" depart="399.50" from="140544928#0" to="20929406#1"/>
    <trip id="199" depart="401.52" from="-21980567#5" to="-20490191#2"/>
    <trip id="200" depart="403.54" from="22560993#1" to="89546442#4"/>
    <trip id="201" depart="405.56" from="22802650#0" to="33197432#2"/>
    <trip id="202" depart="407.58" from="22278655#10" to="20490173#4"/>
    <trip id="203" depart="409.59" from="-325456698#0" to="255643221#1"/>
    <trip id="204" depart="411.61" from="418644383" to="22905040#2"/>
    <trip id="205" depart="413.63" from="83999006#2" to="22788499#1"/>
    <trip id="206" depart="415.65" from="20490173#4" to="22736852#1"/>
    <trip id="207" depart="417.66" from="22736852#5" to="33177799#5"/>
    <trip id="208" depart="419.68" from="37039933#0" to="22736620#7"/>
    <trip id="209" depart="421.70" from="-20490192#0" to="20929381#7"/>
    <trip id="210" depart="423.72" from="125867449#3" to="22905040#6"/>
    <trip id="211" depart="425.73" from="20929409#5" to="20490185#1"/>
    <trip id="212" depart="427.75" from="21737240#5" to="33205937#0"/>
    <trip id="213" depart="429.77" from="22801885" to="20929362#4"/>
    <trip id="214" depart="431.79" from="20490185#5" to="22736852#4"/>
    <trip id="215" depart="433.81" from="22788499#3" to="22736853#4"/>
    <trip id="216" depart="435.82" from="89830321#0" to="22737058#1"/>
    <trip id="217" depart="437.84" from="22139821#0" to="22560996#5"/>
    <trip id="218" depart="439.86" from="370329321#3" to="33197432#8"/>
    <trip id="219" depart="441.88" from="22736517#2" to="22563924#16"/>
    <trip id="220" depart="443.89" from="20929409#2" to="22736853#9"/>
    <trip id="221" depart="445.91" from="418299348" to="459083989#5"/>
    <trip id="222" depart="447.93" from="21737240#1" to="20929380#6"/>
    <trip id="223" depart="449.95" from="89664229#14" to="33180104#5"/>
    <trip id="224" depart="451.96" from="22736676#11" to="-20490192#0"/>
    <trip id="225" depart="453.98" from="22278655#11" to="89664229#6"/>
    <trip id="226" depart="456.00" from="89546442#0" to="22736619#1"/>
    <trip id="227" depart="458.02" from="22147927#0" to="141541747#1"/>
    <trip id="228" depart="460.04" from="22032075#0" to="336449863#2"/>
    <trip id="229" depart="462.05" from="23463164" to="21737240#5"/>
    <trip id="230" depart="464.07" from="-22563924#6" to="336449862#2"/>
    <trip id="231" depart="466.09" from="33183368#1" to="20490157"/>
    <trip id="232" depart="468.11" from="22032076#3" to="22736676#13"/>
    <trip id="233" depart="470.12" from="-22736748#0" to="20929406#0"/>
    <trip id="234" depart="472.14" from="255643221#1" to="20929381#0"/>
    <trip id="235" depart="474.16" from="-106763634" to="20490173#4"/>
    <trip id="236" depart="476.18" from="22905040#3" to="80589716#1"/>
    <trip id="237" depart="478.19" from="22780275" to="22780278"/>
    <trip id="238" depart="480.21" from="20929406#5" to="20490204#1"/>
    <trip id="239" depart="482.23" from="23463214" to="235966556#0"/>
    <trip id="240" depart="484.25" from="336449862#1" to="20490173#6"/>
    <trip id="241" depart="486.27" from="89664229#1" to="22278654#5"/>
    <trip id="242" depart="488.28" from="135394077" to="-89815317#3"/>
    <trip id="243" depart="490.30" from="20490202#8" to="89664230#2"/>
    <trip id="244" depart="492.32" from="86299995#4" to="20490166#0"/>
    <trip id="245" depart="494.34" from="22277434#0" to="22560993#0"/>
    <trip id="246" depart="496.35" from="89664229#4" to="255643221#0"/>
    <trip id="247" depart="498.37" from="33180104#0" to="-22563924#2"/>
    <trip id="248" depart="500.39" from="135394073" to="22278655#11"/>
    <trip id="249" depart="502.41" from="20929378#1" to="22139823#3"/>
    <trip id="250" depart="504.42" from="22277434#13" to="20929383#0"/>
    <trip id="251" depart="506.44" from="20929368#0" to="20929361#0"/>
    <trip id="252" depart="508.46" from="20929376#0" to="22561008#4"/>
    <trip id="253" depart="510.48" from="89664229#6" to="22588087#2"/>
    <trip id="254" depart="512.50" from="454460720#1" to="23038546#2"/>
    <trip id="255" depart="514.51" from="20490192#1" to="20490187#8"/>
    <trip id="256" depart="516.53" from="20490166#4" to="21737240#4"/>
    <trip id="257" depart="518.55" from="-22560721#1" to="141541747#7"/>
    <trip id="258" depart="520.57" from="22893295" to="22560993#1"/>
    <trip id="259" depart="522.58" from="20929401#0" to="336449862#0"/>
    <trip id="260" depart="524.60" from="89674475" to="-516131003#0"/>
    <trip id="261" depart="526.62" from="33177799#5" to="33197432#0"/>
    <trip id="262" depart="528.64" from="20929361#2" to="22278655#8"/>
    <trip id="263" depart="530.66" from="20929361#1" to="22905040#6"/>
    <trip id="264" depart="532.67" from="336449862#6" to="89664229#5"/>
    <trip id="265" depart="534.69" from="135394091" to="20929378#8"/>
    <trip id="266" depart="536.71" from="22273123" to="-22788499#1"/>
    <trip id="267" depart="538.73" from="-106372417#1" to="20929392#1"/>
    <trip id="268" depart="540.74" from="22136028#0" to="22560996#1"/>
    <trip id="269" depart="542.76" from="-22588092#1" to="44883810#7"/>
    <trip id="270" depart="544.78" from="22560748#4" to="20490187#2"/>
    <trip id="271" depart="546.80" from="22802672#0" to="20929380#8"/>
    <trip id="272" depart="548.81" from="447725242#0" to="22560993#0"/>
    <trip id="273" depart="550.83" from="23036317#0" to="-135398829#0"/>
    <trip id="274" depart="552.85" from="20929385#2" to="467497546#3"/>
    <trip id="275" depart="554.87" from="447725242#8" to="86312039#1"/>
    <trip id="276" depart="556.89" from="20490202#2" to="20929381#1"/>
    <trip id="277" depart="558.90" from="22529899#4" to="106760977#9"/>
    <trip id="278" depart="560.92" from="23038695#2" to="20490207#0"/>
    <trip id="279" depart="562.94" from="135394073" to="22560993#0"/>
    <trip id="280" depart="564.96" from="22736617" to="-156841480#1"/>
    <trip id="281" depart="566.97" from="-155444892#2" to="89674382#3"/>
    <trip id="282" depart="568.99" from="22529889#3" to="141541747#3"/>
    <trip id="283" depart="571.01" from="22278655#6" to="135398829#7"/>
    <trip id="284" depart="573.03" from="22032076#2" to="-20490192#1"/>
    <trip id="285" depart="575.04" from="22736620#7" to="22802649#2"/>
    <trip id="286" depart="577.06" from="298414884#0" to="22736518"/>
    <trip id="287" depart="579.08" from="23036317#0" to="22780078#2"/>
    <trip id="288" depart="581.10" from="336449863#3" to="447725242#0"/>
    <trip id="289" depart="583.12" from="33180104#3" to="-141541747#6"/>
    <trip id="290" depart="585.13" from="22563924#8" to="22147926"/>
    <trip id="291" depart="587.15" from="22736853#6" to="22277434#0"/>
    <trip id="292" depart="589.17" from="370329321#1" to="125867449#1"/>
    <trip id="293" depart="591.19" from="89664229#4" to="29032331#1"/>
    <trip id="294" depart="593.20" from="20490185#0" to="-33183368#0"/>
    <trip id="295" depart="595.22" from="22563924#6" to="22788499#5"/>
    <trip id="296" depart="597.24" from="44579181" to="89664233#1"/>
    <trip id="297" depart="599.26" from="22788499#8" to="22563715"/>
    <trip id="298" depart="601.27" from="89674382#1" to="20929395#0"/>
    <trip id="299" depart="603.29" from="83999004#0" to="22736620#0"/>
    <trip id="300" depart="605.31" from="21808366#0" to="20929380#8"/>
    <trip id="301" depart="607.33" from="-22563924#17" to="89815317#0"/>
    <trip id="302" depart="609.35" from="106760977#0" to="22736675#1"/>
    <trip id="303" depart="611.36" from="22560746#1" to="447725242#4"/>
    <trip id="304" depart="613.38" from="22736676#8" to="22588092#2"/>
    <trip id="305" depart="615.40" from="44579146#2" to="20929375"/>
    <trip id="306" depart="617.42" from="22277434#9" to="-454062358#1"/>
    <trip id="307" depart="619.43" from="33199229" to="447725242#10"/>
    <trip id="308" depart="621.45" from="336449863#2" to="20929380#13"/>
    <trip id="309" depart="623.47" from="20929385#2" to="22736518"/>
    <trip id="310" depart="625.49" from="370329321#2" to="-22588092#3"/>
    <trip id="311" depart="627.50" from="22139819#3" to="22277436#6"/>
    <trip id="312" depart="629.52" from="44579146#2" to="141541747#6"/>
    <trip id="313" depart="631.54" from="22736675#3" to="49898934#1"/>
    <trip id="314" depart="633.56" from="22736675#8" to="33180107#1"/>
    <trip id="315" depart="635.58" from="21737240#2" to="22588092#3"/>
    <trip id="316" depart="637.59" from="20929380#5" to="22588092#3"/>
    <trip id="317" depart="639.61" from="-20490192#2" to="22560999#0"/>
    <trip id="318" depart="641.63" from="22736519#0" to="22588087#0"/>
    <trip id="319" depart="643.65" from="22736675#4" to="20929383#0"/>
    <trip id="320" depart="645.66" from="86299984#0" to="89664230#0"/>
    <trip id="321" depart="647.68" from="20929380#11" to="135394066"/>
    <trip id="322" depart="649.70" from="22139823#3" to="298414885#0"/>
    <trip id="323" depart="651.72" from="33180108#5" to="249563063#0"/>
    <trip id="324" depart="653.73" from="22802672#1" to="22736853#6"/>
    <trip id="325" depart="655.75" from="20929378#8" to="44883808#4"/>
    <trip id="326" depart="657.77" from="304648612#1" to="155444892#0"/>
    <trip id="327" depart="659.79" from="83999006#0" to="20490211#7"/>
    <trip id="328" depart="661.81" from="40062523#1" to="20929383#6"/>
    <trip id="329" depart="663.82" from="-22136026" to="21741431#3"/>
    <trip id="330" depart="665.84" from="-454062358#1" to="418299351#1"/>
    <trip id="331" depart="667.86" from="89664229#5" to="20490191#2"/>
    <trip id="332" depart="669.88" from="249563063#2" to="33197432#7"/>
    <trip id="333" depart="671.89" from="22278655#9" to="135529367"/>
    <trip id="334" depart="673.91" from="447725242#14" to="44883807"/>
    <trip id="335" depart="675.93" from="22736675#6" to="86312039#4"/>
    <trip id="336" depart="677.95" from="22588087#1" to="89674382#3"/>
    <trip id="337" depart="679.96" from="-22802650#1" to="22273122#2"/>
    <trip id="338" depart="681.98" from="20929370#0" to="140544928#2"/>
    <trip id="339" depart="684.00" from="22278654#7" to="22560723#1"/>
    <trip id="340" depart="686.02" from="89674382#3" to="22780274#0"/>
    <trip id="341" depart="688.04" from="-23388189#0" to="33177796#2"/>
    <trip id="342" depart="690.05" from="22277434#7" to="22780584#1"/>
    <trip id="343" depart="692.07" from="40062529#1" to="22788499#8"/>
    <trip id="344" depart="694.09" from="22736854#1" to="-255643221#2"/>
    <trip id="345" depart="696.11" from="86299984#0" to="-46742805#3"/>
    <trip id="346" depart="698.12" from="22736676#2" to="22560748#4"/>
    <trip id="347" depart="700.14" from="22277434#8" to="-22529899#3"/>
    <trip id="348" depart="702.16" from="89664229#6" to="20490210#8"/>
    <trip id="349" depart="704.18" from="22278655#17" to="89674411"/>
    <trip id="350" depart="706.19" from="467497545#3" to="21741431#4"/>
    <trip id="351" depart="708.21" from="22029386#3" to="40479899"/>
    <trip id="352" depart="710.23" from="20929409#3" to="46107609#16"/>
    <trip id="353" depart="712.25" from="22277435#1" to="22147925#0"/>
    <trip id="354" depart="714.27" from="467497546#0" to="21768963#2"/>
    <trip id="355" depart="716.28" from="20490158" to="20490166#0"/>
    <trip id="356" depart="718.30" from="22278654#0" to="33177799#3"/>
    <trip id="357" depart="720.32" from="135394073" to="86299978#1"/>
    <trip id="358" depart="722.34" from="44883806#0" to="22277434#10"/>
    <trip id="359" depart="724.35" from="22563924#8" to="46106983"/>
    <trip id="360" depart="726.37" from="447725242#4" to="-22563924#3"/>
    <trip id="361" depart="728.39" from="86312039#0" to="401248498#1"/>
    <trip id="362" depart="730.41" from="-22563924#8" to="-255643221#1"/>
    <trip id="363" depart="732.43" from="20490173#0" to="20490215#5"/>
    <trip id="364" depart="734.44" from="20929361#2" to="22561007#1"/>
    <trip id="365" depart="736.46" from="89674382#3" to="20490155#0"/>
    <trip id="366" depart="738.48" from="22273122#1" to="89830308#2"/>
    <trip id="367" depart="740.50" from="22736518" to="89664230#2"/>
    <trip id="368" depart="742.51" from="22139826#2" to="23038756#0"/>
    <trip id="369" depart="744.53" from="20490173#5" to="-22563924#8"/>
    <trip id="370" depart="746.55" from="467497545#5" to="89664229#9"/>
    <trip id="371" depart="748.57" from="20490210#8" to="22560994#0"/>
    <trip id="372" depart="750.58" from="467497546#8" to="46107609#14"/>
    <trip id="373" depart="752.60" from="22802670#1" to="22870252"/>
    <trip id="374" depart="754.62" from="33177799#2" to="80589716#1"/>
    <trip id="375" depart="756.64" from="86299984#2" to="86312039#2"/>
    <trip id="376" depart="758.66" from="22736620#7" to="22277431#6"/>
    <trip id="377" depart="760.67" from="22560727#0" to="298414884#0"/>
    <trip id="378" depart="762.69" from="49898934#4" to="22278654#9"/>
    <trip id="379" depart="764.71" from="44883810#9" to="21131215"/>
    <trip id="380" depart="766.73" from="23463164" to="89664229#3"/>
    <trip id="381" depart="768.74" from="33197432#10" to="20490166#2"/>
    <trip id="382" depart="770.76" from="31762004" to="-418644383"/>
    <trip id="383" depart="772.78" from="-135394080#1" to="22560994#0"/>
    <trip id="384" depart="774.80" from="20929378#12" to="86312026#2"/>
    <trip id="385" depart="776.81" from="22736617" to="135398829#6"/>
    <trip id="386" depart="778.83" from="20929375" to="-89815317#1"/>
    <trip id="387" depart="780.85" from="89664229#13" to="22278654#8"/>
    <trip id="388" depart="782.87" from="22278654#11" to="22560722#1"/>
    <trip id="389" depart="784.89" from="-22529899#2" to="20490184"/>
    <trip id="390" depart="786.90" from="336449862#7" to="20490186#2"/>
    <trip id="391" depart="788.92" from="20929403#2" to="447725242#11"/>
    <trip id="392" depart="790.94" from="40062525#1" to="22588087#2"/>
    <trip id="393" depart="792.96" from="20490186#2" to="20490166#0"/>
    <trip id="394" depart="794.97" from="418299348" to="20929379#1"/>
    <trip id="395" depart="796.99" from="22277434#15" to="86301446#0"/>
    <trip id="396" depart="799.01" from="37039933#1" to="22278655#7"/>
    <trip id="397" depart="801.03" from="22736748#0" to="155444903#1"/>
    <trip id="398" depart="803.04" from="20929381#12" to="40062529#0"/>
    <trip id="399" depart="805.06" from="33180108#4" to="22588087#6"/>
    <trip id="400" depart="807.08" from="22736343#2" to="249579873#1"/>
    <trip id="401" depart="809.10" from="336449863#3" to="22278655#11"/>
    <trip id="402" depart="811.12" from="249563060" to="22560748#1"/>
    <trip id="403" depart="813.13" from="459083989#6" to="22136028#1"/>
    <trip id="404" depart="815.15" from="22736747#0" to="325456698#1"/>
    <trip id="405" depart="817.17" from="22278654#1" to="298410349#2"/>
    <trip id="406" depart="819.19" from="33197432#11" to="-155444892#1"/>
    <trip id="407" depart="821.20" from="22813171" to="20490202#6"/>
    <trip id="408" depart="823.22" from="106760977#12" to="37039933#1"/>
    <trip id="409" depart="825.24" from="22147925#4" to="-141541747#1"/>
    <trip id="410" depart="827.26" from="137379318#1" to="22736852#3"/>
    <trip id="411" depart="829.27" from="37039933#4" to="22736620#6"/>
    <trip id="412" depart="831.29" from="22788499#8" to="22736515#2"/>
    <trip id="413" depart="833.31" from="80589716#1" to="259235560"/>
    <trip id="414" depart="835.33" from="86301442" to="135394070#2"/>
    <trip id="415" depart="837.35" from="-22780584#2" to="22278655#17"/>